testData/tamu2000/pfcases_100_zone3/Equ_tx2000_hr_5801_mod_v23_zone3_pslf.raw
0  100.000 
THIS IS A SYNTHETIC POWER SYSTEM MODEL THAT DOES NOT REPRESE
DATA RESEARCH PROJECT AND CONTAINS NO CEII.
1004,  2,  52.367,  -21.635,  0.000,  0.000,  1,  1.02657,  -35.7744,  'O DONNEL',  230.00,  9
1021,  2,  29.834,  -14.009,  0.000,  0.000,  1,  1.00861,  -30.0683,  'BIG SPRI',  13.800,  9
1023,  2,  19.054,  -4.662,  0.000,  0.000,  1,  1.01000,  -31.9514,  'O DONNEL',  13.800,  9
1026,  2,  17.708,  -8.580,  0.000,  0.000,  1,  1.00342,  -29.2404,  'BIG SPRI',  13.800,  9
1033,  2,  180.800,  -20.890,  0.000,  0.000,  1,  1.00000,  -28.1297,  'MCCAMEY ',  230.00,  9
1039,  2,  19.362,  -6.319,  0.000,  0.000,  1,  1.00000,  -24.6340,  'FORT STO',  22.000,  9
1042,  2,  24.465,  -3.693,  0.000,  0.000,  1,  1.00000,  -28.8072,  'FORSAN 1',  13.800,  9
1048,  2,  106.335,  -3.718,  0.000,  0.000,  1,  1.00000,  -7.1311,  'MONAHANS',  18.000,  9
1049,  2,  102.602,  10.756,  0.000,  0.000,  1,  1.00000,  0.0098,  'MONAHANS',  18.000,  9
1053,  2,  54.122,  -15.472,  0.000,  0.000,  1,  1.00466,  -21.4864,  'MONAHANS',  230.00,  9
1057,  2,  34.566,  -15.707,  0.000,  0.000,  1,  1.00763,  -30.6367,  'LENORAH ',  18.000,  9
1066,  2,  23.130,  -5.564,  0.000,  0.000,  1,  1.00000,  -28.1115,  'BIG SPRI',  13.800,  9
1070,  2,  45.879,  -0.277,  0.000,  0.000,  1,  1.04000,  -28.0959,  'IRAAN 1 ',  13.800,  9
1072,  3,  65.585,  4.617,  0.000,  0.000,  1,  1.01000,  -12.1021,  'ODESSA 1',  18.000,  9
1073,  2,  36.102,  -1.744,  0.000,  0.000,  1,  1.01000,  -18.9425,  'ODESSA 1',  18.000,  9
1074,  2,  37.482,  0.025,  0.000,  0.000,  1,  1.01000,  -19.3118,  'ODESSA 1',  18.000,  9
1075,  2,  44.730,  -0.466,  0.000,  0.000,  1,  1.01000,  -20.8787,  'ODESSA 1',  18.000,  9
1076,  2,  88.663,  -7.286,  0.000,  0.000,  1,  1.01000,  -24.0414,  'ODESSA 1',  18.000,  9
1077,  2,  38.445,  -0.367,  0.000,  0.000,  1,  1.01000,  -19.5673,  'ODESSA 1',  18.000,  9
1081,  2,  100.968,  -37.959,  0.000,  0.000,  1,  1.01000,  -25.1423,  'ODESSA 1',  230.00,  9
1082,  2,  73.267,  -31.616,  0.000,  0.000,  1,  1.01121,  -26.8231,  'FORT STO',  115.00,  9
1084,  2,  109.637,  -35.765,  0.000,  0.000,  1,  1.03327,  -32.1296,  'BIG SPRI',  115.00,  9
2004,  2,  200.669,  -27.310,  0.000,  0.000,  2,  1.02032,  -44.4898,  'SAVOY 2 ',  13.800,  11
2005,  2,  169.201,  -23.674,  0.000,  0.000,  2,  1.02000,  -44.3281,  'SAVOY 3 ',  13.800,  11
2006,  2,  107.095,  -13.950,  0.000,  0.000,  2,  1.02000,  -43.7095,  'SAVOY 4 ',  13.800,  11
2024,  2,  101.104,  -15.040,  0.000,  0.000,  2,  1.02260,  -43.0613,  'PARIS 2 ',  13.800,  11
2057,  3,  281.103,  -93.136,  0.000,  0.000,  2,  0.99000,  -38.5052,  'WICHITA ',  18.000,  11
2115,  2,  65.131,  -10.607,  0.000,  0.000,  2,  1.01947,  -41.9095,  'PARIS 1 ',  13.800,  11
2116,  2,  121.601,  -17.725,  0.000,  0.000,  2,  1.02324,  -42.9985,  'PARIS 1 ',  13.800,  11
2117,  2,  58.002,  -8.776,  0.000,  0.000,  2,  1.01761,  -41.5524,  'PARIS 1 ',  13.800,  11
2118,  2,  53.570,  -8.121,  0.000,  0.000,  2,  1.01661,  -41.2662,  'PARIS 1 ',  13.800,  11
2119,  2,  95.668,  -15.256,  0.000,  0.000,  2,  1.02234,  -42.7423,  'PARIS 1 ',  13.800,  11
2120,  2,  55.230,  -8.501,  0.000,  0.000,  2,  1.01716,  -41.3800,  'PARIS 1 ',  13.800,  11
3017,  2,  30.894,  0.286,  0.000,  0.000,  3,  1.01000,  -36.3941,  'BLACKWEL',  18.000,  27
3020,  2,  137.183,  -14.128,  0.000,  0.000,  3,  1.03000,  -40.4397,  'CHRISTOV',  13.800,  27
3034,  2,  23.374,  4.356,  0.000,  0.000,  3,  1.03000,  -34.3311,  'SNYDER 1',  22.000,  27
3039,  2,  27.497,  -3.821,  0.000,  0.000,  3,  1.04000,  -36.2661,  'ROSCOE 2',  13.800,  27
3045,  2,  16.599,  -1.245,  0.000,  0.000,  3,  1.04000,  -31.6991,  'SILVER 4',  13.800,  27
3048,  2,  832.010,  -674.415,  0.000,  0.000,  3,  1.04556,  -40.3789,  'ROSCOE 5',  500.00,  27
3055,  2,  56.701,  -2.788,  0.000,  0.000,  3,  1.04000,  -36.1350,  'WINGATE ',  13.800,  27
3056,  2,  34.827,  1.265,  0.000,  0.000,  3,  1.04000,  -35.2250,  'WINGATE ',  13.800,  27
3057,  2,  35.632,  0.919,  0.000,  0.000,  3,  1.04000,  -35.2823,  'WINGATE ',  13.800,  27
3060,  2,  16.606,  0.017,  0.000,  0.000,  3,  1.04000,  -32.0408,  'STERLING',  18.000,  27
3061,  2,  21.028,  -0.161,  0.000,  0.000,  3,  1.04000,  -32.8066,  'STERLING',  18.000,  27
3062,  2,  32.686,  -2.961,  0.000,  0.000,  3,  1.04000,  -33.7551,  'STERLING',  18.000,  27
3063,  2,  27.116,  -0.570,  0.000,  0.000,  3,  1.04000,  -33.3467,  'STERLING',  18.000,  27
3068,  2,  23.445,  1.304,  0.000,  0.000,  3,  1.04000,  -36.2696,  'TRENT 1 ',  20.000,  27
3071,  2,  11.526,  -3.685,  0.000,  0.000,  3,  1.00610,  -36.3998,  'NOLAN 1 ',  24.000,  27
3081,  2,  18.629,  -2.704,  0.000,  0.000,  3,  1.04000,  -35.1053,  'HERMLEIG',  20.000,  27
3084,  2,  17.029,  -7.404,  0.000,  0.000,  3,  1.00000,  -33.9099,  'MERKEL 1',  13.800,  27
3092,  2,  40.475,  4.292,  0.000,  0.000,  3,  1.04000,  -37.4585,  'ABILENE ',  13.800,  27
3095,  2,  24.417,  3.299,  0.000,  0.000,  3,  1.04000,  -36.5907,  'MERKEL 2',  18.000,  27
3098,  2,  21.914,  -2.219,  0.000,  0.000,  3,  1.04000,  -34.3447,  'FLUVANNA',  13.800,  27
3106,  3,  68.272,  -6.227,  0.000,  0.000,  3,  1.00000,  -40.9185,  'BUCHANAN',  13.200,  28
3118,  2,  28.964,  -1.450,  0.000,  0.000,  3,  1.00000,  -35.2809,  'SYNDER 2',  13.800,  27
3122,  2,  18.990,  -3.423,  0.000,  0.000,  3,  1.00000,  -31.8516,  'ROSCOE 1',  18.000,  27
3127,  2,  11.244,  5.747,  0.000,  0.000,  3,  1.01657,  -35.3386,  'SWEETWAT',  115.00,  27
3129,  2,  10.601,  -14.577,  0.000,  0.000,  3,  1.02183,  -34.8350,  'ROSCOE 3',  115.00,  27
3131,  2,  133.027,  -21.941,  0.000,  0.000,  3,  1.02000,  -38.5565,  'TUSOCOLA',  115.00,  27
4010,  2,  33.102,  -2.911,  0.000,  0.000,  4,  1.03000,  -79.1148,  'SARITA 3',  20.000,  21
4026,  2,  286.968,  -5.474,  0.000,  0.000,  4,  1.03000,  -50.5898,  'CHRISTIN',  13.800,  20
4030,  3,  322.978,  68.508,  0.000,  0.000,  4,  1.01000,  -30.4198,  'FANNIN 2',  13.800,  21
4047,  2,  47.186,  7.157,  0.000,  0.000,  4,  1.02000,  -82.3831,  'FALCON H',  13.800,  19
4050,  2,  29.349,  -14.396,  0.000,  0.000,  4,  1.00184,  -92.5330,  'SEBASTIA',  13.800,  19
4058,  2,  46.063,  20.918,  0.000,  0.000,  4,  1.03000,  -63.5272,  'GREGORY ',  13.800,  21
4059,  2,  54.085,  23.550,  0.000,  0.000,  4,  1.03000,  -63.9551,  'GREGORY ',  13.800,  21
4060,  2,  40.725,  14.663,  0.000,  0.000,  4,  1.03000,  -62.3416,  'GREGORY ',  13.800,  21
4061,  2,  47.522,  21.385,  0.000,  0.000,  4,  1.03000,  -63.0513,  'GREGORY ',  13.800,  21
4062,  2,  48.109,  16.517,  0.000,  0.000,  4,  1.03000,  -62.2743,  'GREGORY ',  13.800,  21
4063,  2,  46.570,  21.658,  0.000,  0.000,  4,  1.03000,  -62.9854,  'GREGORY ',  13.800,  21
4082,  2,  31.058,  14.175,  0.000,  0.000,  4,  1.04000,  -69.0072,  'CORPUS C',  13.800,  21
4083,  2,  32.434,  15.303,  0.000,  0.000,  4,  1.04000,  -69.3826,  'CORPUS C',  13.800,  21
4084,  2,  63.862,  10.713,  0.000,  0.000,  4,  1.04000,  -71.3713,  'CORPUS C',  13.800,  21
4085,  2,  75.544,  12.369,  0.000,  0.000,  4,  1.04000,  -70.8050,  'CORPUS C',  13.800,  21
4115,  2,  123.695,  -18.209,  0.000,  0.000,  4,  1.04000,  -72.4707,  'LAREDO 1',  13.800,  20
4116,  2,  117.606,  -18.373,  0.000,  0.000,  4,  1.04000,  -72.4194,  'LAREDO 1',  13.800,  20
4142,  2,  101.518,  -2.809,  0.000,  0.000,  4,  1.03973,  -76.8933,  'SARITA 1',  13.800,  21
4153,  2,  290.839,  -17.875,  0.000,  0.000,  4,  1.03355,  -79.1412,  'ARMSTRON',  18.000,  21
4160,  2,  191.567,  51.519,  0.000,  0.000,  4,  1.03000,  -67.4843,  'CORPUS C',  13.800,  21
4161,  2,  91.994,  27.855,  0.000,  0.000,  4,  1.03000,  -64.7245,  'CORPUS C',  13.800,  21
4162,  2,  93.324,  26.122,  0.000,  0.000,  4,  1.03000,  -64.7945,  'CORPUS C',  13.800,  21
4166,  2,  29.719,  -5.473,  0.000,  0.000,  4,  1.01055,  -78.5878,  'SARITA 2',  13.800,  21
4177,  2,  48.219,  2.625,  0.000,  0.000,  4,  1.04000,  -75.7756,  'BRUNI 1 ',  13.800,  20
4183,  2,  367.339,  -18.911,  0.000,  0.000,  4,  1.01611,  -80.8834,  'SAN PERL',  230.00,  19
4192,  2,  941.444,  104.820,  0.000,  0.000,  4,  1.02000,  -82.9564,  'BROWNSVI',  230.00,  19
4194,  2,  801.054,  -118.373,  0.000,  0.000,  4,  1.00974,  -94.2015,  'SEBASTIA',  115.00,  19
5037,  2,  284.343,  -4.009,  0.000,  0.000,  5,  1.02094,  -43.5413,  'DALLAS 1',  13.200,  16
5038,  2,  275.824,  -3.112,  0.000,  0.000,  5,  1.02071,  -43.4753,  'DALLAS 1',  13.200,  16
5039,  2,  652.140,  -23.554,  0.000,  0.000,  5,  1.02349,  -44.6665,  'DALLAS 1',  13.200,  16
5040,  2,  213.276,  -1.958,  0.000,  0.000,  5,  1.02000,  -42.8146,  'DALLAS 1',  13.200,  16
5041,  2,  302.377,  -6.624,  0.000,  0.000,  5,  1.02145,  -43.6661,  'DALLAS 1',  13.200,  16
5042,  2,  256.819,  -2.166,  0.000,  0.000,  5,  1.02030,  -43.3223,  'DALLAS 1',  13.200,  16
5057,  2,  175.899,  -35.238,  0.000,  0.000,  5,  1.02559,  -40.0411,  'GRAHAM 2',  13.800,  12
5058,  2,  130.313,  -24.106,  0.000,  0.000,  5,  1.02303,  -39.1378,  'GRAHAM 3',  13.800,  12
5067,  2,  428.029,  -13.981,  0.000,  0.000,  5,  1.03000,  -43.3834,  'ARLINGTO',  13.800,  17
5068,  2,  407.966,  -14.523,  0.000,  0.000,  5,  1.03000,  -43.2734,  'ARLINGTO',  13.800,  17
5069,  2,  386.642,  -11.094,  0.000,  0.000,  5,  1.03000,  -42.8257,  'ARLINGTO',  13.800,  17
5166,  2,  207.325,  -23.006,  0.000,  0.000,  5,  1.04000,  -45.2191,  'DENTON 1',  13.800,  17
5206,  2,  132.790,  -17.456,  0.000,  0.000,  5,  1.02336,  -41.3976,  'POOLVILL',  13.800,  12
5207,  2,  232.753,  -33.450,  0.000,  0.000,  5,  1.02596,  -42.2966,  'POOLVILL',  13.800,  12
5208,  2,  186.995,  -26.244,  0.000,  0.000,  5,  1.02517,  -42.0278,  'POOLVILL',  13.800,  12
5238,  2,  236.841,  -99.997,  0.000,  0.000,  5,  1.03063,  -41.8238,  'OLNEY 1 ',  18.000,  12
5262,  2,  367.076,  -2.863,  0.000,  0.000,  5,  1.01534,  -37.3074,  'GLEN ROS',  13.800,  18
5263,  2,  495.350,  -9.480,  0.000,  0.000,  5,  1.01803,  -38.5330,  'GLEN ROS',  13.800,  18
5281,  2,  170.913,  -3.462,  0.000,  0.000,  5,  1.01818,  -44.5337,  'TEMPLE 1',  13.800,  13
5282,  2,  202.185,  -4.496,  0.000,  0.000,  5,  1.01920,  -44.7955,  'TEMPLE 1',  13.800,  13
5283,  2,  265.068,  -7.672,  0.000,  0.000,  5,  1.02058,  -45.1310,  'TEMPLE 1',  13.800,  13
5302,  2,  292.675,  -9.573,  0.000,  0.000,  5,  1.04000,  -43.8206,  'MCKINNEY',  13.800,  16
5303,  2,  397.551,  -18.331,  0.000,  0.000,  5,  1.04000,  -44.4629,  'MCKINNEY',  13.800,  16
5319,  2,  196.814,  -8.133,  0.000,  0.000,  5,  1.01705,  -41.5901,  'GRANBURY',  13.200,  18
5320,  2,  181.271,  -9.523,  0.000,  0.000,  5,  1.01672,  -41.4189,  'GRANBURY',  13.200,  18
5321,  2,  205.250,  -8.930,  0.000,  0.000,  5,  1.01735,  -41.6592,  'GRANBURY',  13.200,  18
5324,  2,  236.807,  0.232,  0.000,  0.000,  5,  1.04000,  -43.5286,  'DALLAS 2',  13.800,  17
5325,  2,  236.741,  1.966,  0.000,  0.000,  5,  1.04000,  -43.5236,  'DALLAS 2',  13.800,  17
5326,  2,  705.830,  -41.947,  0.000,  0.000,  5,  1.04000,  -45.3032,  'DALLAS 2',  13.800,  17
5343,  2,  155.361,  -3.194,  0.000,  0.000,  5,  1.04000,  -47.9267,  'LEWISVIL',  13.800,  17
5360,  3,  187.429,  -4.424,  0.000,  0.000,  5,  1.01000,  -43.4547,  'RIESEL 1',  13.800,  13
5364,  2,  239.591,  -25.345,  0.000,  0.000,  5,  1.02500,  -42.5840,  'BRIDGEPO',  13.800,  12
5365,  2,  122.030,  -11.610,  0.000,  0.000,  5,  1.02247,  -41.7213,  'BRIDGEPO',  13.800,  12
5366,  2,  108.738,  -10.199,  0.000,  0.000,  5,  1.02189,  -41.4915,  'BRIDGEPO',  13.800,  12
5367,  2,  111.804,  -10.271,  0.000,  0.000,  5,  1.02197,  -41.5479,  'BRIDGEPO',  13.800,  12
5368,  2,  160.428,  -16.703,  0.000,  0.000,  5,  1.02382,  -42.1627,  'BRIDGEPO',  13.800,  12
5369,  2,  105.198,  -9.689,  0.000,  0.000,  5,  1.02160,  -41.3915,  'BRIDGEPO',  13.800,  12
5382,  2,  209.442,  1.348,  0.000,  0.000,  5,  1.04000,  -44.7830,  'ENNIS 2 ',  13.800,  14
5383,  2,  182.944,  3.470,  0.000,  0.000,  5,  1.04000,  -44.6215,  'ENNIS 3 ',  13.800,  14
5415,  2,  97.355,  -18.604,  0.000,  0.000,  5,  1.02913,  -41.7262,  'PALO PIN',  13.800,  12
5416,  2,  96.380,  -18.123,  0.000,  0.000,  5,  1.02901,  -41.7130,  'PALO PIN',  13.800,  12
5417,  2,  108.588,  -20.411,  0.000,  0.000,  5,  1.02950,  -41.8600,  'PALO PIN',  13.800,  12
5444,  2,  1504.615,  -145.266,  0.000,  0.000,  5,  1.02111,  -43.7456,  'MIDLOTHI',  500.00,  17
6006,  2,  83.321,  -3.903,  0.000,  0.000,  6,  1.04000,  -42.4734,  'BASTROP ',  13.800,  25
6007,  2,  132.675,  -5.068,  0.000,  0.000,  6,  1.04000,  -41.6719,  'BASTROP ',  13.800,  25
6008,  2,  71.045,  -3.016,  0.000,  0.000,  6,  1.04000,  -42.6008,  'BASTROP ',  13.800,  25
6009,  2,  46.590,  0.178,  0.000,  0.000,  6,  1.04000,  -42.0068,  'BASTROP ',  13.800,  25
6010,  2,  62.002,  -2.184,  0.000,  0.000,  6,  1.04000,  -42.4561,  'BASTROP ',  13.800,  25
6042,  2,  29.619,  3.898,  0.000,  0.000,  6,  1.04000,  -44.6972,  'AUSTIN 3',  13.800,  23
6062,  1,  359.448,  -2.813,  0.000,  0.000,  6,  1.02292,  -40.5856,  'BRENHAM ',  500.00,  25
6069,  2,  192.028,  -6.581,  0.000,  0.000,  6,  1.03000,  -44.6380,  'MARION 1',  18.000,  22
6070,  2,  79.306,  -1.881,  0.000,  0.000,  6,  1.03000,  -43.6563,  'MARION 1',  18.000,  22
6071,  2,  246.754,  -9.024,  0.000,  0.000,  6,  1.03000,  -44.7808,  'MARION 1',  18.000,  22
6072,  2,  94.809,  -1.679,  0.000,  0.000,  6,  1.03000,  -43.9547,  'MARION 1',  18.000,  22
6073,  2,  146.473,  -4.453,  0.000,  0.000,  6,  1.03000,  -44.4104,  'MARION 1',  18.000,  22
6074,  2,  147.671,  -5.450,  0.000,  0.000,  6,  1.03000,  -44.4180,  'MARION 1',  18.000,  22
6078,  2,  69.709,  -20.912,  0.000,  0.000,  6,  1.01059,  -38.8862,  'LA GRANG',  22.000,  25
6079,  2,  126.891,  -39.979,  0.000,  0.000,  6,  1.01486,  -39.4764,  'LA GRANG',  22.000,  25
6080,  2,  99.470,  -30.226,  0.000,  0.000,  6,  1.01346,  -39.2903,  'LA GRANG',  22.000,  25
6110,  2,  199.074,  -5.892,  0.000,  0.000,  6,  1.04000,  -43.9013,  'ROCKDALE',  13.800,  25
6111,  2,  201.743,  -5.471,  0.000,  0.000,  6,  1.04000,  -43.7897,  'ROCKDALE',  13.800,  25
6145,  2,  192.771,  14.286,  0.000,  0.000,  6,  1.03000,  -41.2282,  'SAN ANTO',  13.800,  22
6146,  2,  199.668,  14.566,  0.000,  0.000,  6,  1.03000,  -41.3874,  'SAN ANTO',  13.800,  22
6147,  3,  220.840,  8.100,  0.000,  0.000,  6,  1.03000,  -43.9313,  'SAN ANTO',  13.800,  22
6148,  2,  365.914,  7.701,  0.000,  0.000,  6,  1.03000,  -44.4682,  'SAN ANTO',  13.800,  22
6149,  2,  677.813,  7.235,  0.000,  0.000,  6,  1.03000,  -44.9830,  'SAN ANTO',  13.800,  22
6164,  2,  125.475,  -5.050,  0.000,  0.000,  6,  1.03000,  -42.7069,  'SEGUIN 1',  13.800,  22
6165,  2,  113.198,  -4.828,  0.000,  0.000,  6,  1.03000,  -42.5339,  'SEGUIN 1',  13.800,  22
6166,  2,  261.364,  -15.118,  0.000,  0.000,  6,  1.03000,  -43.5086,  'SEGUIN 1',  13.800,  22
6167,  2,  143.713,  -6.641,  0.000,  0.000,  6,  1.03000,  -42.8943,  'SEGUIN 1',  13.800,  22
6188,  1,  291.607,  -0.500,  0.000,  0.000,  6,  1.00651,  -41.4222,  'COLUMBUS',  230.00,  25
6195,  1,  66.691,  2.688,  0.000,  0.000,  6,  0.98535,  -46.8493,  'INDUSTRY',  115.00,  25
6213,  2,  31.532,  -2.846,  0.000,  0.000,  6,  1.04000,  -45.0382,  'MARBLE F',  13.800,  23
6214,  2,  62.189,  -6.107,  0.000,  0.000,  6,  1.04000,  -44.3409,  'MARBLE F',  13.800,  23
6215,  2,  270.100,  -51.499,  0.000,  0.000,  6,  1.04000,  -45.4265,  'MARBLE F',  13.800,  23
6216,  2,  109.427,  -16.662,  0.000,  0.000,  6,  1.04000,  -44.9567,  'MARBLE F',  13.800,  23
6243,  2,  167.301,  5.149,  0.000,  0.000,  6,  1.04000,  -43.9828,  'ELMENDOR',  13.800,  22
6244,  2,  177.039,  1.996,  0.000,  0.000,  6,  1.04000,  -43.1058,  'ELMENDOR',  13.800,  22
6245,  2,  208.629,  0.346,  0.000,  0.000,  6,  1.04000,  -43.4529,  'ELMENDOR',  13.800,  22
6246,  2,  362.867,  -16.614,  0.000,  0.000,  6,  1.04000,  -44.3707,  'ELMENDOR',  13.800,  22
6247,  2,  318.369,  -10.206,  0.000,  0.000,  6,  1.04000,  -44.7320,  'ELMENDOR',  13.800,  22
6248,  2,  161.875,  0.642,  0.000,  0.000,  6,  1.04000,  -44.1098,  'ELMENDOR',  13.800,  22
6249,  2,  126.574,  6.048,  0.000,  0.000,  6,  1.04000,  -43.5622,  'ELMENDOR',  13.800,  22
6257,  2,  117.605,  8.813,  0.000,  0.000,  6,  1.03214,  -44.3904,  'AUSTIN 2',  13.800,  23
6258,  2,  64.061,  4.122,  0.000,  0.000,  6,  1.03005,  -43.7573,  'AUSTIN 2',  13.800,  23
6260,  2,  133.909,  8.810,  0.000,  0.000,  6,  1.03177,  -44.0503,  'AUSTIN 2',  13.800,  23
6295,  2,  140.003,  1.549,  0.000,  0.000,  6,  1.03335,  -43.9693,  'CEDAR CR',  13.800,  23
6296,  2,  163.834,  1.418,  0.000,  0.000,  6,  1.03361,  -44.0734,  'CEDAR CR',  13.800,  23
6297,  2,  63.409,  1.676,  0.000,  0.000,  6,  1.03053,  -43.0182,  'CEDAR CR',  13.800,  23
6302,  2,  102.226,  -3.243,  0.000,  0.000,  6,  1.02195,  -42.6324,  'NEW BRAU',  22.000,  22
6303,  2,  295.046,  -8.297,  0.000,  0.000,  6,  1.02607,  -44.0261,  'NEW BRAU',  22.000,  22
6304,  2,  121.062,  -3.348,  0.000,  0.000,  6,  1.02303,  -42.9708,  'NEW BRAU',  22.000,  22
6305,  2,  101.140,  -3.507,  0.000,  0.000,  6,  1.02200,  -42.6060,  'NEW BRAU',  22.000,  22
6341,  1,  101.318,  -19.832,  0.000,  0.000,  6,  1.01270,  -46.6916,  'CHAPPELL',  115.00,  25
6349,  2,  1600.110,  -66.259,  0.000,  0.000,  6,  1.04000,  -45.7808,  'AUSTIN 1',  500.00,  23
7002,  1,  0.000,  0.000,  0.000,  0.000,  7,  1.03498,  -35.1782,  'PASADENA',  500.00,  4
7003,  1,  0.000,  0.000,  0.000,  0.000,  7,  1.02805,  -37.9003,  'PASADENA',  230.00,  4
7004,  1,  0.000,  0.000,  0.000,  0.000,  7,  1.02556,  -41.0202,  'PASADENA',  115.00,  4
7005,  2,  0.000,  0.000,  0.000,  0.000,  7,  1.04000,  -33.6251,  'PASADENA',  13.800,  4
7006,  2,  0.000,  0.000,  0.000,  0.000,  7,  1.04000,  -34.2953,  'PASADENA',  13.800,  4
7007,  2,  0.000,  0.000,  0.000,  0.000,  7,  1.04000,  -33.8487,  'PASADENA',  13.800,  4
7008,  2,  0.000,  0.000,  0.000,  0.000,  7,  1.04000,  -33.7809,  'PASADENA',  13.800,  4
7009,  2,  0.000,  0.000,  0.000,  0.000,  7,  1.04000,  -33.6221,  'PASADENA',  13.800,  4
7010,  1,  0.000,  0.000,  0.000,  0.000,  7,  1.00282,  -46.7792,  'PRAIRIE ',  115.00,  5
7011,  1,  0.000,  0.000,  0.000,  0.000,  7,  1.02680,  -45.2430,  'CONROE 1',  115.00,  5
7012,  1,  0.000,  0.000,  0.000,  0.000,  7,  1.00268,  -43.5447,  'SIMONTON',  115.00,  3
7013,  1,  0.000,  0.000,  0.000,  0.000,  7,  1.01093,  -44.9680,  'HOUSTON ',  115.00,  5
7014,  1,  0.000,  0.000,  0.000,  0.000,  7,  1.01039,  -43.7650,  'HOUSTON ',  115.00,  4
7015,  2,  0.000,  0.000,  0.000,  0.000,  7,  1.01039,  -43.7650,  'HOUSTON ',  18.000,  4
7016,  1,  0.000,  0.000,  0.000,  0.000,  7,  1.01859,  -41.8313,  'HOUSTON ',  115.00,  4
7017,  1,  0.000,  0.000,  0.000,  0.000,  7,  1.01522,  -44.3871,  'HOUSTON ',  115.00,  3
7026,  1,  0.000,  0.000,  0.000,  0.000,  7,  1.02108,  -41.6396,  'BACLIFF ',  115.00,  4
7027,  1,  0.000,  0.000,  0.000,  0.000,  7,  1.01282,  -44.3544,  'SPRING 1',  115.00,  5
7028,  1,  -0.125,  -239.097,  0.000,  0.000,  7,  1.02000,  -43.8707,  'HOUSTON ',  115.00,  3
...
 0 /End of Bus data, Begin Generator data
1004,  '1',  56.289,  -30.380,  44.940,  -30.380,  1.01000,  0,  253.200,  0.00000,  1.00000,  0.00000,  0.00000,  1.00000,  1,  100.0,  211.000,  63.300
1021,  '1',  53.223,  -28.730,  42.490,  -28.730,  1.00000,  0,  239.400,  0.00000,  1.00000,  0.00000,  0.00000,  1.00000,  1,  100.0,  199.500,  59.850
1023,  '1',  48.019,  -12.849,  38.340,  -25.920,  1.01000,  0,  216.000,  0.00000,  1.00000,  0.00000,  0.00000,  1.00000,  1,  100.0,  180.000,  54.000
1026,  '1',  33.133,  -17.880,  26.450,  -17.880,  1.00000,  0,  149.040,  0.00000,  1.00000,  0.00000,  0.00000,  1.00000,  1,  100.0,  124.200,  37.260
1033,  '1',  74.163,  -28.618,  59.210,  -40.030,  1.00000,  0,  333.600,  0.00000,  1.00000,  0.00000,  0.00000,  1.00000,  1,  100.0,  278.000,  83.400
1039,  '1',  39.351,  -14.298,  31.420,  -21.240,  1.00000,  0,  177.000,  0.00000,  1.00000,  0.00000,  0.00000,  1.00000,  1,  100.0,  147.500,  44.250
1042,  '1',  32.822,  -8.909,  25.960,  -17.550,  1.00000,  0,  146.280,  0.00000,  1.00000,  0.00000,  0.00000,  1.00000,  1,  100.0,  121.900,  36.570
1048,  '1',  234.140,  8.867,  165.530,  -36.100,  1.00000,  0,  390.240,  0.00000,  0.10170,  0.00000,  0.00000,  1.00000,  1,  100.0,  325.200,  97.560
1049,  '1',  234.140,  28.826,  165.530,  -36.100,  1.00000,  0,  390.240,  0.00000,  0.13490,  0.00000,  0.00000,  1.00000,  1,  100.0,  325.200,  97.560
1053,  '1',  103.700,  -19.850,  91.010,  -19.850,  1.00000,  0,  214.560,  0.00000,  0.16870,  0.00000,  0.00000,  1.00000,  1,  100.0,  178.800,  53.640
1057,  '1',  32.311,  -17.280,  25.560,  -17.280,  1.00000,  0,  144.000,  0.00000,  1.00000,  0.00000,  0.00000,  1.00000,  1,  100.0,  120.000,  36.000
1066,  '1',  38.017,  -9.903,  30.350,  -20.520,  1.00000,  0,  171.000,  0.00000,  1.00000,  0.00000,  0.00000,  1.00000,  1,  100.0,  142.500,  42.750
1070,  '1',  42.819,  25.937,  34.190,  -23.110,  1.04000,  0,  192.600,  0.00000,  1.00000,  0.00000,  0.00000,  1.00000,  1,  100.0,  160.500,  48.150
1072,  '1',  310.132,  24.916,  97.800,  -21.330,  1.01000,  0,  230.560,  0.00000,  0.30820,  0.00000,  0.00000,  1.00000,  1,  100.0,  192.130,  57.640
1073,  '1',  111.440,  -0.929,  97.800,  -21.330,  1.01000,  0,  230.560,  0.00000,  0.19480,  0.00000,  0.00000,  1.00000,  1,  100.0,  192.130,  57.640
1074,  '1',  111.440,  4.783,  97.800,  -21.330,  1.01000,  0,  230.560,  0.00000,  0.20960,  0.00000,  0.00000,  1.00000,  1,  100.0,  192.130,  57.640
1075,  '1',  111.440,  4.813,  97.800,  -21.330,  1.01000,  0,  230.560,  0.00000,  0.12370,  0.00000,  0.00000,  1.00000,  1,  100.0,  192.130,  57.640
1076,  '1',  111.440,  5.682,  97.800,  -21.330,  1.01000,  0,  230.560,  0.00000,  0.10660,  0.00000,  0.00000,  1.00000,  1,  100.0,  192.130,  57.640
1077,  '1',  111.440,  3.830,  97.800,  -21.330,  1.01000,  0,  230.560,  0.00000,  0.15380,  0.00000,  0.00000,  1.00000,  1,  100.0,  192.130,  57.640
1081,  '1',  206.280,  11.293,  145.830,  -31.800,  1.01000,  0,  343.800,  0.00000,  0.14960,  0.00000,  0.00000,  1.00000,  1,  100.0,  286.500,  85.950
1082,  '1',  40.016,  -21.600,  31.950,  -21.600,  1.00000,  0,  180.000,  0.00000,  1.00000,  0.00000,  0.00000,  1.00000,  1,  100.0,  150.000,  45.000
1084,  '1',  30.811,  24.600,  24.600,  -16.630,  1.04000,  0,  138.600,  0.00000,  1.00000,  0.00000,  0.00000,  1.00000,  1,  100.0,  115.500,  34.650
2004,  '1',  117.540,  -43.490,  199.430,  -43.490,  1.02000,  0,  470.160,  0.00000,  0.10640,  0.00000,  0.00000,  1.00000,  1,  100.0,  391.800,  117.540
2005,  '1',  117.540,  -39.528,  199.430,  -43.490,  1.02000,  0,  470.160,  0.00000,  0.22750,  0.00000,  0.00000,  1.00000,  1,  100.0,  391.800,  117.540
2006,  '1',  117.540,  -24.378,  199.430,  -43.490,  1.02000,  0,  470.160,  0.00000,  0.20040,  0.00000,  0.00000,  1.00000,  1,  100.0,  391.800,  117.540
2024,  '1',  96.670,  -18.500,  84.830,  -18.500,  1.02000,  0,  200.000,  0.00000,  0.15080,  0.00000,  0.00000,  1.00000,  1,  100.0,  166.670,  50.000
2057,  '1',  443.588,  -251.262,  335.520,  -87.840,  0.99000,  0,  864.000,  0.00000,  0.17700,  0.00000,  0.00000,  1.00000,  1,  100.0,  720.000,  216.000
2115,  '1',  107.130,  -20.500,  94.020,  -20.500,  1.00000,  0,  221.660,  0.00000,  0.14250,  0.00000,  0.00000,  1.00000,  1,  100.0,  184.720,  55.410
2116,  '1',  107.130,  -20.500,  94.020,  -20.500,  1.00000,  0,  221.660,  0.00000,  0.18690,  0.00000,  0.00000,  1.00000,  1,  100.0,  184.720,  55.410
2117,  '1',  107.130,  -20.500,  94.020,  -20.500,  1.00000,  0,  221.660,  0.00000,  0.32540,  0.00000,  0.00000,  1.00000,  1,  100.0,  184.720,  55.410
2118,  '1',  107.130,  -20.500,  94.020,  -20.500,  1.00000,  0,  221.660,  0.00000,  0.10610,  0.00000,  0.00000,  1.00000,  1,  100.0,  184.720,  55.410
2119,  '1',  107.130,  -20.500,  94.020,  -20.500,  1.00000,  0,  221.660,  0.00000,  0.13600,  0.00000,  0.00000,  1.00000,  1,  100.0,  184.720,  55.410
2120,  '1',  107.130,  -20.500,  94.020,  -20.500,  1.01000,  0,  221.660,  0.00000,  0.20680,  0.00000,  0.00000,  1.00000,  1,  100.0,  184.720,  55.410
3017,  '1',  45.220,  -12.886,  36.100,  -24.410,  1.01000,  0,  203.400,  0.00000,  1.00000,  0.00000,  0.00000,  1.00000,  1,  100.0,  169.500,  50.850
3020,  '1',  40.016,  0.667,  31.950,  -21.600,  1.03000,  0,  180.000,  0.00000,  1.00000,  0.00000,  0.00000,  1.00000,  1,  100.0,  150.000,  45.000
3034,  '1',  34.812,  8.978,  27.800,  -18.790,  1.03000,  0,  156.600,  0.00000,  1.00000,  0.00000,  0.00000,  1.00000,  1,  100.0,  130.500,  39.150
3039,  '1',  55.756,  6.831,  44.520,  -30.100,  1.04000,  0,  250.800,  0.00000,  1.00000,  0.00000,  0.00000,  1.00000,  1,  100.0,  209.000,  62.700
3045,  '1',  134.100,  5.876,  227.520,  -49.620,  1.04000,  0,  536.400,  0.00000,  0.14470,  0.00000,  0.00000,  1.00000,  1,  100.0,  447.000,  134.100
3048,  '1',  64.293,  -34.700,  51.330,  -34.700,  1.04000,  0,  289.200,  0.00000,  1.00000,  0.00000,  0.00000,  1.00000,  1,  100.0,  241.000,  72.300
3055,  '1',  65.406,  10.597,  52.220,  -35.300,  1.04000,  0,  294.200,  0.00000,  1.00000,  0.00000,  0.00000,  1.00000,  1,  100.0,  245.170,  73.550
3056,  '1',  65.406,  6.004,  52.220,  -35.300,  1.04000,  0,  294.200,  0.00000,  1.00000,  0.00000,  0.00000,  1.00000,  1,  100.0,  245.170,  73.550
3057,  '1',  65.406,  5.475,  52.220,  -35.300,  1.04000,  0,  294.200,  0.00000,  1.00000,  0.00000,  0.00000,  1.00000,  1,  100.0,  245.170,  73.550
3060,  '1',  44.185,  3.797,  35.280,  -23.850,  1.04000,  0,  198.750,  0.00000,  1.00000,  0.00000,  0.00000,  1.00000,  1,  100.0,  165.630,  49.690
3061,  '1',  44.185,  5.005,  35.280,  -23.850,  1.04000,  0,  198.750,  0.00000,  1.00000,  0.00000,  0.00000,  1.00000,  1,  100.0,  165.630,  49.690
3062,  '1',  44.185,  9.002,  35.280,  -23.850,  1.04000,  0,  198.750,  0.00000,  1.00000,  0.00000,  0.00000,  1.00000,  1,  100.0,  165.630,  49.690
3063,  '1',  44.185,  6.264,  35.280,  -23.850,  1.04000,  0,  198.750,  0.00000,  1.00000,  0.00000,  0.00000,  1.00000,  1,  100.0,  165.630,  49.690
3068,  '1',  40.016,  23.534,  31.950,  -21.600,  1.04000,  0,  180.000,  0.00000,  1.00000,  0.00000,  0.00000,  1.00000,  1,  100.0,  150.000,  45.000
3071,  '1',  45.405,  -24.510,  36.250,  -24.510,  1.00000,  0,  204.240,  0.00000,  1.00000,  0.00000,  0.00000,  1.00000,  1,  100.0,  170.200,  51.060
3081,  '1',  66.427,  3.405,  53.040,  -35.860,  1.04000,  0,  298.800,  0.00000,  1.00000,  0.00000,  0.00000,  1.00000,  1,  100.0,  249.000,  74.700
3084,  '1',  62.023,  -32.895,  49.520,  -33.480,  1.00000,  0,  279.000,  0.00000,  1.00000,  0.00000,  0.00000,  1.00000,  1,  100.0,  232.500,  69.750
3092,  '1',  53.355,  6.698,  42.600,  -28.800,  1.04000,  0,  240.000,  0.00000,  1.00000,  0.00000,  0.00000,  1.00000,  1,  100.0,  200.000,  60.000
3095,  '1',  32.173,  8.817,  25.690,  -17.370,  1.04000,  0,  144.720,  0.00000,  1.00000,  0.00000,  0.00000,  1.00000,  1,  100.0,  120.600,  36.180
3098,  '1',  42.684,  4.884,  34.080,  -23.040,  1.04000,  0,  192.000,  0.00000,  1.00000,  0.00000,  0.00000,  1.00000,  1,  100.0,  160.000,  48.000
3106,  '1',  85.178,  -15.881,  62.477,  -2.690,  1.00000,  0,  65.880,  0.00000,  0.29220,  0.00000,  0.00000,  1.00000,  1,  100.0,  162.800,  0.000
3118,  '1',  32.013,  -15.373,  25.560,  -17.280,  1.00000,  0,  144.000,  0.00000,  1.00000,  0.00000,  0.00000,  1.00000,  1,  100.0,  120.000,  36.000
3122,  '1',  52.555,  -18.241,  41.960,  -28.370,  1.00000,  0,  236.400,  0.00000,  1.00000,  0.00000,  0.00000,  1.00000,  1,  100.0,  197.000,  59.100
3127,  '1',  36.015,  -19.440,  28.760,  -19.440,  1.00000,  0,  162.000,  0.00000,  1.00000,  0.00000,  0.00000,  1.00000,  1,  100.0,  135.000,  40.500
3129,  '1',  33.749,  -18.220,  26.940,  -18.220,  1.00000,  0,  151.800,  0.00000,  1.00000,  0.00000,  0.00000,  1.00000,  1,  100.0,  126.500,  37.950
3131,  '1',  30.412,  -2.852,  24.280,  -16.420,  1.02000,  0,  136.800,  0.00000,  1.00000,  0.00000,  0.00000,  1.00000,  1,  100.0,  114.000,  34.200
4010,  '1',  53.782,  14.508,  42.940,  -29.030,  1.03000,  0,  241.920,  0.00000,  1.00000,  0.00000,  0.00000,  1.00000,  1,  100.0,  201.600,  60.480
4026,  '1',  123.000,  37.313,  191.060,  -50.020,  1.03000,  0,  492.000,  0.00000,  0.32770,  0.00000,  0.00000,  1.00000,  1,  100.0,  410.000,  123.000
4030,  '1',  1146.113,  115.705,  290.040,  -75.930,  1.01000,  0,  746.880,  0.00000,  0.27970,  0.00000,  0.00000,  1.00000,  1,  100.0,  622.400,  186.720
4047,  '1',  35.490,  8.048,  75.102,  -3.230,  1.02000,  0,  79.200,  0.00000,  0.32270,  0.00000,  0.00000,  1.00000,  1,  100.0,  195.700,  0.000
4050,  '1',  53.355,  -28.800,  42.600,  -28.800,  1.00000,  0,  240.000,  0.00000,  1.00000,  0.00000,  0.00000,  1.00000,  1,  100.0,  200.000,  60.000
4058,  '1',  83.520,  32.024,  73.300,  -15.980,  1.03000,  0,  172.800,  0.00000,  0.13700,  0.00000,  0.00000,  1.00000,  1,  100.0,  144.000,  43.200
4059,  '1',  83.520,  36.147,  73.300,  -15.980,  1.03000,  0,  172.800,  0.00000,  0.15140,  0.00000,  0.00000,  1.00000,  1,  100.0,  144.000,  43.200
4060,  '1',  83.520,  22.880,  73.300,  -15.980,  1.03000,  0,  172.800,  0.00000,  0.13940,  0.00000,  0.00000,  1.00000,  1,  100.0,  144.000,  43.200
4061,  '1',  99.950,  32.683,  87.720,  -19.130,  1.03000,  0,  206.800,  0.00000,  0.21560,  0.00000,  0.00000,  1.00000,  1,  100.0,  172.330,  51.700
4062,  '1',  99.950,  25.421,  87.720,  -19.130,  1.03000,  0,  206.800,  0.00000,  0.25930,  0.00000,  0.00000,  1.00000,  1,  100.0,  172.330,  51.700
4063,  '1',  99.950,  33.468,  87.720,  -19.130,  1.03000,  0,  206.800,  0.00000,  0.14410,  0.00000,  0.00000,  1.00000,  1,  100.0,  172.330,  51.700
4082,  '1',  175.250,  33.341,  123.890,  -27.020,  1.04000,  0,  292.080,  0.00000,  0.13810,  0.00000,  0.00000,  1.00000,  1,  100.0,  243.400,  73.020
4083,  '1',  175.250,  35.375,  123.890,  -27.020,  1.04000,  0,  292.080,  0.00000,  0.15700,  0.00000,  0.00000,  1.00000,  1,  100.0,  243.400,  73.020
4084,  '1',  175.250,  61.278,  123.890,  -27.020,  1.04000,  0,  292.080,  0.00000,  0.19110,  0.00000,  0.00000,  1.00000,  1,  100.0,  243.400,  73.020
4085,  '1',  253.440,  70.575,  179.170,  -39.070,  1.04000,  0,  422.400,  0.00000,  0.31920,  0.00000,  0.00000,  1.00000,  1,  100.0,  352.000,  105.600
4115,  '1',  39.540,  31.318,  67.090,  -14.630,  1.04000,  0,  158.160,  0.00000,  0.11310,  0.00000,  0.00000,  1.00000,  1,  100.0,  131.800,  39.540
4116,  '1',  39.540,  29.380,  67.090,  -14.630,  1.04000,  0,  158.160,  0.00000,  0.15150,  0.00000,  0.00000,  1.00000,  1,  100.0,  131.800,  39.540
4142,  '1',  50.154,  40.040,  40.040,  -27.070,  1.04000,  0,  225.600,  0.00000,  1.00000,  0.00000,  0.00000,  1.00000,  1,  100.0,  188.000,  56.400
4153,  '1',  75.550,  60.320,  60.320,  -40.780,  1.04000,  0,  339.840,  0.00000,  1.00000,  0.00000,  0.00000,  1.00000,  1,  100.0,  283.200,  84.960
4160,  '1',  142.390,  82.535,  100.660,  -21.950,  1.03000,  0,  237.320,  0.00000,  0.18820,  0.00000,  0.00000,  1.00000,  1,  100.0,  197.770,  59.330
4161,  '1',  142.390,  37.663,  100.660,  -21.950,  1.03000,  0,  237.320,  0.00000,  0.12390,  0.00000,  0.00000,  1.00000,  1,  100.0,  197.770,  59.330
4162,  '1',  142.390,  34.968,  100.660,  -21.950,  1.03000,  0,  237.320,  0.00000,  0.17220,  0.00000,  0.00000,  1.00000,  1,  100.0,  197.770,  59.330
4166,  '1',  53.622,  -28.940,  42.810,  -28.940,  1.00000,  0,  241.200,  0.00000,  1.00000,  0.00000,  0.00000,  1.00000,  1,  100.0,  201.000,  60.300
4177,  '1',  40.016,  4.005,  31.950,  -21.600,  1.04000,  0,  180.000,  0.00000,  1.00000,  0.00000,  0.00000,  1.00000,  1,  100.0,  150.000,  45.000
4183,  '1',  54.155,  43.240,  43.240,  -29.230,  1.03000,  0,  243.600,  0.00000,  1.00000,  0.00000,  0.00000,  1.00000,  1,  100.0,  203.000,  60.900
4192,  '1',  896.490,  135.001,  688.320,  -150.120,  1.02000,  0,  1622.76,  0.00000,  0.14340,  0.00000,  0.00000,  1.00000,  1,  100.0,  1352.31,  405.690
4194,  '1',  53.782,  42.940,  42.940,  -29.030,  1.02000,  0,  241.920,  0.00000,  1.00000,  0.00000,  0.00000,  1.00000,  1,  100.0,  201.600,  60.480
5037,  '1',  308.470,  -34.240,  157.010,  -34.240,  1.02000,  0,  370.160,  0.00000,  0.29910,  0.00000,  0.00000,  1.00000,  1,  100.0,  308.470,  92.540
5038,  '1',  308.470,  -34.240,  157.010,  -34.240,  1.02000,  0,  370.160,  0.00000,  0.12330,  0.00000,  0.00000,  1.00000,  1,  100.0,  308.470,  92.540
5039,  '1',  308.470,  -34.240,  157.010,  -34.240,  1.02000,  0,  370.160,  0.00000,  0.21470,  0.00000,  0.00000,  1.00000,  1,  100.0,  308.470,  92.540
5040,  '1',  308.470,  -30.769,  157.010,  -34.240,  1.02000,  0,  370.160,  0.00000,  0.19240,  0.00000,  0.00000,  1.00000,  1,  100.0,  308.470,  92.540
5041,  '1',  308.470,  -34.240,  157.010,  -34.240,  1.02000,  0,  370.160,  0.00000,  0.11590,  0.00000,  0.00000,  1.00000,  1,  100.0,  308.470,  92.540
5042,  '1',  308.470,  -34.240,  157.010,  -34.240,  1.02000,  0,  370.160,  0.00000,  0.19130,  0.00000,  0.00000,  1.00000,  1,  100.0,  308.470,  92.540
5057,  '1',  272.950,  -35.230,  161.530,  -35.230,  1.00000,  0,  380.820,  0.00000,  0.19130,  0.00000,  0.00000,  1.00000,  1,  100.0,  317.350,  95.200
5058,  '1',  272.920,  -35.230,  161.530,  -35.230,  1.00000,  0,  380.820,  0.00000,  0.29820,  0.00000,  0.00000,  1.00000,  1,  100.0,  317.350,  95.200
5067,  '1',  376.910,  5.142,  223.080,  -48.650,  1.03000,  0,  525.920,  0.00000,  0.32610,  0.00000,  0.00000,  1.00000,  1,  100.0,  438.270,  131.480
5068,  '1',  376.910,  3.604,  223.080,  -48.650,  1.03000,  0,  525.920,  0.00000,  0.11690,  0.00000,  0.00000,  1.00000,  1,  100.0,  438.270,  131.480
5069,  '1',  423.254,  4.360,  223.080,  -48.650,  1.03000,  0,  525.920,  0.00000,  0.10560,  0.00000,  0.00000,  1.00000,  1,  100.0,  438.270,  131.480
5166,  '1',  73.370,  27.037,  64.390,  -14.040,  1.04000,  0,  151.800,  0.00000,  0.13910,  0.00000,  0.00000,  1.00000,  1,  100.0,  126.500,  37.950
5206,  '1',  179.040,  -27.600,  126.570,  -27.600,  1.01000,  0,  298.400,  0.00000,  0.11980,  0.00000,  0.00000,  1.00000,  1,  100.0,  248.670,  74.600
5207,  '1',  179.040,  -27.600,  126.570,  -27.600,  1.01000,  0,  298.400,  0.00000,  0.18090,  0.00000,  0.00000,  1.00000,  1,  100.0,  248.670,  74.600
5208,  '1',  179.040,  -27.600,  126.570,  -27.600,  1.01000,  0,  298.400,  0.00000,  0.10560,  0.00000,  0.00000,  1.00000,  1,  100.0,  248.670,  74.600
5238,  '1',  33.723,  -32.400,  47.930,  -32.400,  1.00000,  0,  270.000,  0.00000,  1.00000,  0.00000,  0.00000,  1.00000,  1,  100.0,  225.000,  67.500
5262,  '1',  1215.000,  -99.630,  447.120,  -99.630,  1.01000,  0,  1458.00,  0.00000,  0.26310,  0.00000,  0.00000,  1.00000,  1,  100.0,  1215.00,  364.500
5263,  '1',  1215.000,  -99.630,  447.120,  -99.630,  1.01000,  0,  1458.00,  0.00000,  0.16260,  0.00000,  0.00000,  1.00000,  1,  100.0,  1215.00,  364.500
5281,  '1',  155.280,  -29.720,  136.280,  -29.720,  1.00000,  0,  321.280,  0.00000,  0.10660,  0.00000,  0.00000,  1.00000,  1,  100.0,  267.730,  80.320
5282,  '1',  155.280,  -29.720,  136.280,  -29.720,  1.00000,  0,  321.280,  0.00000,  0.23940,  0.00000,  0.00000,  1.00000,  1,  100.0,  267.730,  80.320
5283,  '1',  155.280,  -29.720,  136.280,  -29.720,  1.00000,  0,  321.280,  0.00000,  0.10650,  0.00000,  0.00000,  1.00000,  1,  100.0,  267.730,  80.320
5302,  '1',  268.980,  55.392,  236.050,  -51.480,  1.04000,  0,  556.500,  0.00000,  0.13300,  0.00000,  0.00000,  1.00000,  1,  100.0,  463.750,  139.130
5303,  '1',  268.980,  73.405,  236.050,  -51.480,  1.04000,  0,  556.500,  0.00000,  0.17920,  0.00000,  0.00000,  1.00000,  1,  100.0,  463.750,  139.130
5319,  '1',  152.420,  -29.170,  133.770,  -29.170,  1.01000,  0,  315.360,  0.00000,  0.25070,  0.00000,  0.00000,  1.00000,  1,  100.0,  262.800,  78.840
5320,  '1',  152.420,  -29.170,  133.770,  -29.170,  1.01000,  0,  315.360,  0.00000,  0.28140,  0.00000,  0.00000,  1.00000,  1,  100.0,  262.800,  78.840
5321,  '1',  152.420,  -29.170,  133.770,  -29.170,  1.01000,  0,  315.360,  0.00000,  0.12810,  0.00000,  0.00000,  1.00000,  1,  100.0,  262.800,  78.840
5324,  '1',  244.300,  48.070,  144.590,  -31.530,  1.04000,  0,  340.880,  0.00000,  0.21670,  0.00000,  0.00000,  1.00000,  1,  100.0,  284.070,  85.220
5325,  '1',  244.300,  49.835,  144.590,  -31.530,  1.04000,  0,  340.880,  0.00000,  0.15030,  0.00000,  0.00000,  1.00000,  1,  100.0,  284.070,  85.220
5326,  '1',  244.300,  133.069,  144.590,  -31.530,  1.04000,  0,  340.880,  0.00000,  0.18810,  0.00000,  0.00000,  1.00000,  1,  100.0,  284.070,  85.220
5343,  '1',  37.630,  22.582,  79.667,  -3.430,  1.04000,  0,  84.000,  0.00000,  0.24140,  0.00000,  0.00000,  1.00000,  1,  100.0,  207.500,  0.000
5360,  '1',  303.651,  -114.897,  469.730,  -122.980,  1.01000,  0,  1209.60,  0.00000,  0.25510,  0.00000,  0.00000,  1.00000,  1,  100.0,  1008.00,  302.400
5364,  '1',  153.600,  -23.680,  108.590,  -23.680,  1.00000,  0,  256.000,  0.00000,  0.13030,  0.00000,  0.00000,  1.00000,  1,  100.0,  213.330,  64.000
5365,  '1',  153.600,  -23.680,  108.590,  -23.680,  1.00000,  0,  256.000,  0.00000,  0.11650,  0.00000,  0.00000,  1.00000,  1,  100.0,  213.330,  64.000
5366,  '1',  153.600,  -23.680,  108.590,  -23.680,  1.00000,  0,  256.000,  0.00000,  0.15490,  0.00000,  0.00000,  1.00000,  1,  100.0,  213.330,  64.000
5367,  '1',  153.600,  -23.680,  108.590,  -23.680,  1.00000,  0,  256.000,  0.00000,  0.10020,  0.00000,  0.00000,  1.00000,  1,  100.0,  213.330,  64.000
5368,  '1',  153.600,  -23.680,  108.590,  -23.680,  1.00000,  0,  256.000,  0.00000,  0.36180,  0.00000,  0.00000,  1.00000,  1,  100.0,  213.330,  64.000
5369,  '1',  153.600,  -23.680,  108.590,  -23.680,  1.00000,  0,  256.000,  0.00000,  0.24440,  0.00000,  0.00000,  1.00000,  1,  100.0,  213.330,  64.000
5382,  '1',  150.480,  79.414,  106.380,  -23.200,  1.04000,  0,  250.800,  0.00000,  0.24770,  0.00000,  0.00000,  1.00000,  1,  100.0,  209.000,  62.700
5383,  '1',  150.480,  69.919,  106.380,  -23.200,  1.04000,  0,  250.800,  0.00000,  0.39820,  0.00000,  0.00000,  1.00000,  1,  100.0,  209.000,  62.700
5415,  '1',  70.760,  -13.540,  62.100,  -13.540,  1.00000,  0,  146.400,  0.00000,  0.14030,  0.00000,  0.00000,  1.00000,  1,  100.0,  122.000,  36.600
5416,  '1',  70.760,  -13.540,  62.100,  -13.540,  1.00000,  0,  146.400,  0.00000,  0.26480,  0.00000,  0.00000,  1.00000,  1,  100.0,  122.000,  36.600
5417,  '1',  70.760,  -13.540,  62.100,  -13.540,  1.00000,  0,  146.400,  0.00000,  0.16960,  0.00000,  0.00000,  1.00000,  1,  100.0,  122.000,  36.600
5444,  '1',  1090.500,  -223.840,  1026.440,  -223.840,  1.01000,  0,  2419.92,  0.00000,  0.34260,  0.00000,  0.00000,  1.00000,  1,  100.0,  2016.60,  604.980
6006,  '1',  153.360,  15.221,  108.420,  -23.640,  1.04000,  0,  255.600,  0.00000,  0.18770,  0.00000,  0.00000,  1.00000,  1,  100.0,  213.000,  63.900
6007,  '1',  426.000,  26.433,  216.830,  -47.290,  1.04000,  0,  511.200,  0.00000,  0.13420,  0.00000,  0.00000,  1.00000,  1,  100.0,  426.000,  127.800
6008,  '1',  115.030,  13.836,  100.950,  -22.010,  1.04000,  0,  238.000,  0.00000,  0.20160,  0.00000,  0.00000,  1.00000,  1,  100.0,  198.330,  59.500
6009,  '1',  115.030,  8.550,  100.950,  -22.010,  1.04000,  0,  238.000,  0.00000,  0.18430,  0.00000,  0.00000,  1.00000,  1,  100.0,  198.330,  59.500
6010,  '1',  115.030,  11.119,  100.950,  -22.010,  1.04000,  0,  238.000,  0.00000,  0.15620,  0.00000,  0.00000,  1.00000,  1,  100.0,  198.330,  59.500
6042,  '1',  58.067,  9.812,  122.908,  -5.290,  1.04000,  0,  129.600,  0.00000,  0.18770,  0.00000,  0.00000,  1.00000,  1,  100.0,  320.200,  0.000
6069,  '1',  105.190,  -5.621,  92.320,  -20.130,  1.03000,  0,  217.640,  0.00000,  0.22480,  0.00000,  0.00000,  1.00000,  1,  100.0,  181.370,  54.410
6070,  '1',  105.190,  -1.797,  92.320,  -20.130,  1.03000,  0,  217.640,  0.00000,  0.24660,  0.00000,  0.00000,  1.00000,  1,  100.0,  181.370,  54.410
6071,  '1',  105.190,  -6.288,  92.320,  -20.130,  1.03000,  0,  217.640,  0.00000,  0.15280,  0.00000,  0.00000,  1.00000,  1,  100.0,  181.370,  54.410
6072,  '1',  105.190,  -2.012,  92.320,  -20.130,  1.03000,  0,  217.640,  0.00000,  0.19250,  0.00000,  0.00000,  1.00000,  1,  100.0,  181.370,  54.410
6073,  '1',  105.190,  -4.055,  92.320,  -20.130,  1.03000,  0,  217.640,  0.00000,  0.14260,  0.00000,  0.00000,  1.00000,  1,  100.0,  181.370,  54.410
6074,  '1',  105.190,  -4.761,  92.320,  -20.130,  1.03000,  0,  217.640,  0.00000,  0.11150,  0.00000,  0.00000,  1.00000,  1,  100.0,  181.370,  54.410
6078,  '1',  169.000,  -68.730,  262.510,  -68.730,  1.00000,  0,  676.000,  0.00000,  0.28900,  0.00000,  0.00000,  1.00000,  1,  100.0,  563.330,  169.000
6079,  '1',  169.000,  -68.730,  262.510,  -68.730,  1.00000,  0,  676.000,  0.00000,  0.25330,  0.00000,  0.00000,  1.00000,  1,  100.0,  563.330,  169.000
6080,  '1',  169.000,  -68.730,  262.510,  -68.730,  1.00000,  0,  676.000,  0.00000,  0.32510,  0.00000,  0.00000,  1.00000,  1,  100.0,  563.330,  169.000
6110,  '1',  177.180,  32.282,  275.220,  -72.050,  1.04000,  0,  708.720,  0.00000,  0.16800,  0.00000,  0.00000,  1.00000,  1,  100.0,  590.600,  177.180
6111,  '1',  198.450,  32.836,  308.260,  -80.700,  1.04000,  0,  793.800,  0.00000,  0.21900,  0.00000,  0.00000,  1.00000,  1,  100.0,  661.500,  198.450
6145,  '1',  446.000,  10.012,  227.010,  -49.510,  1.03000,  0,  535.200,  0.00000,  0.14770,  0.00000,  0.00000,  1.00000,  1,  100.0,  446.000,  133.800
6146,  '1',  446.000,  9.921,  227.010,  -49.510,  1.03000,  0,  535.200,  0.00000,  0.11950,  0.00000,  0.00000,  1.00000,  1,  100.0,  446.000,  133.800
6147,  '1',  199.171,  0.086,  474.390,  -103.450,  1.03000,  0,  1118.40,  0.00000,  0.10440,  0.00000,  0.00000,  1.00000,  1,  100.0,  932.000,  279.600
6148,  '1',  216.600,  -1.097,  367.500,  -80.140,  1.03000,  0,  866.400,  0.00000,  0.23830,  0.00000,  0.00000,  1.00000,  1,  100.0,  722.000,  216.600
6149,  '1',  216.600,  -0.864,  367.500,  -80.140,  1.03000,  0,  866.400,  0.00000,  0.12770,  0.00000,  0.00000,  1.00000,  1,  100.0,  722.000,  216.600
6164,  '1',  169.240,  0.566,  119.640,  -26.090,  1.03000,  0,  282.060,  0.00000,  0.30070,  0.00000,  0.00000,  1.00000,  1,  100.0,  235.050,  70.520
6165,  '1',  169.240,  -0.113,  119.640,  -26.090,  1.03000,  0,  282.060,  0.00000,  0.18390,  0.00000,  0.00000,  1.00000,  1,  100.0,  235.050,  70.520
6166,  '1',  169.240,  -0.092,  119.640,  -26.090,  1.03000,  0,  282.060,  0.00000,  0.25100,  0.00000,  0.00000,  1.00000,  1,  100.0,  235.050,  70.520
6167,  '1',  169.240,  0.289,  119.640,  -26.090,  1.03000,  0,  282.060,  0.00000,  0.13970,  0.00000,  0.00000,  1.00000,  1,  100.0,  235.050,  70.520
6213,  '1',  32.262,  -1.528,  68.286,  -2.940,  1.04000,  0,  72.000,  0.00000,  0.33650,  0.00000,  0.00000,  1.00000,  1,  100.0,  177.900,  0.000
6214,  '1',  100.158,  -2.380,  212.059,  -9.130,  1.04000,  0,  223.600,  0.00000,  0.21900,  0.00000,  0.00000,  1.00000,  1,  100.0,  552.300,  0.000
6215,  '1',  100.158,  -9.079,  212.059,  -9.130,  1.04000,  0,  223.600,  0.00000,  0.20110,  0.00000,  0.00000,  1.00000,  1,  100.0,  552.300,  0.000
6216,  '1',  100.158,  -4.135,  212.059,  -9.130,  1.04000,  0,  223.600,  0.00000,  0.37760,  0.00000,  0.00000,  1.00000,  1,  100.0,  552.300,  0.000
6243,  '1',  131.760,  31.590,  93.150,  -20.310,  1.04000,  0,  219.600,  0.00000,  0.28800,  0.00000,  0.00000,  1.00000,  1,  100.0,  183.000,  54.900
6244,  '1',  256.280,  38.644,  151.680,  -33.080,  1.04000,  0,  357.600,  0.00000,  0.12500,  0.00000,  0.00000,  1.00000,  1,  100.0,  298.000,  89.400
6245,  '1',  256.280,  44.611,  151.680,  -33.080,  1.04000,  0,  357.600,  0.00000,  0.24960,  0.00000,  0.00000,  1.00000,  1,  100.0,  298.000,  89.400
6246,  '1',  256.280,  84.348,  151.680,  -33.080,  1.04000,  0,  357.600,  0.00000,  0.16990,  0.00000,  0.00000,  1.00000,  1,  100.0,  298.000,  89.400
6247,  '1',  132.000,  69.221,  93.320,  -20.350,  1.04000,  0,  220.000,  0.00000,  0.11730,  0.00000,  0.00000,  1.00000,  1,  100.0,  183.330,  55.000
6248,  '1',  132.000,  35.077,  93.320,  -20.350,  1.04000,  0,  220.000,  0.00000,  0.27550,  0.00000,  0.00000,  1.00000,  1,  100.0,  183.330,  55.000
6249,  '1',  132.000,  23.840,  93.320,  -20.350,  1.04000,  0,  220.000,  0.00000,  0.17480,  0.00000,  0.00000,  1.00000,  1,  100.0,  183.330,  55.000
6257,  '1',  112.520,  -21.530,  98.750,  -21.530,  1.02000,  0,  232.800,  0.00000,  0.15520,  0.00000,  0.00000,  1.00000,  1,  100.0,  194.000,  58.200
6258,  '1',  112.520,  -21.530,  98.750,  -21.530,  1.02000,  0,  232.800,  0.00000,  0.26310,  0.00000,  0.00000,  1.00000,  1,  100.0,  194.000,  58.200
6260,  '1',  185.040,  -28.530,  130.810,  -28.530,  1.02000,  0,  308.400,  0.00000,  0.11970,  0.00000,  0.00000,  1.00000,  1,  100.0,  257.000,  77.100
6295,  '1',  148.490,  -22.890,  104.970,  -22.890,  1.02000,  0,  247.480,  0.00000,  0.21970,  0.00000,  0.00000,  1.00000,  1,  100.0,  206.230,  61.870
6296,  '1',  148.490,  -22.890,  104.970,  -22.890,  1.02000,  0,  247.480,  0.00000,  0.25670,  0.00000,  0.00000,  1.00000,  1,  100.0,  206.230,  61.870
6297,  '1',  148.500,  -22.890,  104.970,  -22.890,  1.02000,  0,  247.480,  0.00000,  0.14170,  0.00000,  0.00000,  1.00000,  1,  100.0,  206.230,  61.900
6302,  '1',  178.020,  -27.440,  125.850,  -27.440,  1.00000,  0,  296.700,  0.00000,  0.25960,  0.00000,  0.00000,  1.00000,  1,  100.0,  247.250,  74.180
6303,  '1',  178.020,  -27.440,  125.850,  -27.440,  1.00000,  0,  296.700,  0.00000,  0.27270,  0.00000,  0.00000,  1.00000,  1,  100.0,  247.250,  74.180
6304,  '1',  178.020,  -27.440,  125.850,  -27.440,  1.00000,  0,  296.700,  0.00000,  0.11710,  0.00000,  0.00000,  1.00000,  1,  100.0,  247.250,  74.180
6305,  '1',  178.020,  -27.440,  125.850,  -27.440,  1.00000,  0,  296.700,  0.00000,  0.12770,  0.00000,  0.00000,  1.00000,  1,  100.0,  247.250,  74.180
6349,  '1',  522.720,  243.688,  369.540,  -80.580,  1.04000,  0,  871.200,  0.00000,  0.16290,  0.00000,  0.00000,  1.00000,  1,  100.0,  726.000,  217.800
7005,  '1',  117.360,  20.615,  82.970,  -18.090,  1.04000,  0,  195.600,  0.00000,  0.13000,  0.00000,  0.00000,  1.00000,  1,  100.0,  163.000,  48.900
7006,  '1',  117.360,  36.782,  82.970,  -18.090,  1.04000,  0,  195.600,  0.00000,  0.19150,  0.00000,  0.00000,  1.00000,  1,  100.0,  163.000,  48.900
7007,  '1',  117.360,  23.961,  82.970,  -18.090,  1.04000,  0,  195.600,  0.00000,  0.34300,  0.00000,  0.00000,  1.00000,  1,  100.0,  163.000,  48.900
7008,  '1',  117.360,  22.347,  82.970,  -18.090,  1.04000,  0,  195.600,  0.00000,  0.21570,  0.00000,  0.00000,  1.00000,  1,  100.0,  163.000,  48.900
7009,  '1',  117.360,  20.196,  82.970,  -18.090,  1.04000,  0,  195.600,  0.00000,  0.13060,  0.00000,  0.00000,  1.00000,  1,  100.0,  163.000,  48.900
7015,  '1',  0.000,  0.000,  2.040,  -0.440,  1.04000,  0,  4.800,  0.00000,  0.22520,  0.00000,  0.00000,  1.00000,  0,  100.0,  4.000,  1.200
7045,  '1',  109.300,  35.749,  95.920,  -20.920,  1.03000,  0,  226.140,  0.00000,  0.12400,  0.00000,  0.00000,  1.00000,  1,  100.0,  188.450,  56.530
7046,  '1',  109.300,  77.568,  95.920,  -20.920,  1.03000,  0,  226.140,  0.00000,  0.10650,  0.00000,  0.00000,  1.00000,  1,  100.0,  188.450,  56.530
7079,  '1',  196.640,  15.416,  116.380,  -25.380,  1.04000,  0,  274.380,  0.00000,  0.13630,  0.00000,  0.00000,  1.00000,  1,  100.0,  228.650,  68.590
7080,  '1',  196.640,  12.339,  116.380,  -25.380,  1.04000,  0,  274.380,  0.00000,  0.17160,  0.00000,  0.00000,  1.00000,  1,  100.0,  228.650,  68.590
7081,  '1',  196.640,  12.936,  116.380,  -25.380,  1.04000,  0,  274.380,  0.00000,  0.24350,  0.00000,  0.00000,  1.00000,  1,  100.0,  228.650,  68.590
7082,  '1',  196.640,  14.718,  116.380,  -25.380,  1.04000,  0,  274.380,  0.00000,  0.26430,  0.00000,  0.00000,  1.00000,  1,  100.0,  228.650,  68.590
7098,  '1',  1574.506,  371.813,  498.380,  -111.050,  1.00000,  0,  3600.00,  0.00000,  0.28190,  0.00000,  0.00000,  1.00000,  1,  100.0,  1354.30,  406.290
7099,  '1',  1354.300,  62.968,  498.380,  -111.050,  1.00000,  0,  1625.16,  0.00000,  0.27430,  0.00000,  0.00000,  1.00000,  1,  100.0,  1354.30,  406.290
7107,  '1',  108.000,  45.310,  76.350,  -16.650,  1.04000,  0,  180.000,  0.00000,  0.29250,  0.00000,  0.00000,  1.00000,  1,  100.0,  150.000,  45.000
7108,  '1',  0.000,  18.528,  25.960,  -5.660,  1.04000,  0,  61.200,  0.00000,  0.13470,  0.00000,  0.00000,  1.00000,  0,  100.0,  51.000,  15.300
7109,  '1',  0.000,  22.506,  25.960,  -5.660,  1.04000,  0,  61.200,  0.00000,  0.17780,  0.00000,  0.00000,  1.00000,  0,  100.0,  51.000,  15.300
7110,  '1',  141.120,  25.226,  99.760,  -21.760,  1.04000,  0,  235.200,  0.00000,  0.13730,  0.00000,  0.00000,  1.00000,  1,  100.0,  196.000,  58.800
7111,  '1',  141.120,  24.556,  99.760,  -21.760,  1.04000,  0,  235.200,  0.00000,  0.19180,  0.00000,  0.00000,  1.00000,  1,  100.0,  196.000,  58.800
7112,  '1',  141.120,  39.186,  99.760,  -21.760,  1.04000,  0,  235.200,  0.00000,  0.17280,  0.00000,  0.00000,  1.00000,  1,  100.0,  196.000,  58.800
7113,  '1',  141.120,  20.884,  99.760,  -21.760,  1.04000,  0,  235.200,  0.00000,  0.16060,  0.00000,  0.00000,  1.00000,  1,  100.0,  196.000,  58.800
7114,  '1',  141.120,  41.528,  99.760,  -21.760,  1.04000,  0,  235.200,  0.00000,  0.20370,  0.00000,  0.00000,  1.00000,  1,  100.0,  196.000,  58.800
7115,  '1',  141.120,  41.786,  99.760,  -21.760,  1.04000,  0,  235.200,  0.00000,  0.17540,  0.00000,  0.00000,  1.00000,  1,  100.0,  196.000,  58.800
...
 0 /End of Generator data, Begin Branch data
1004,  1023,  '99',  0.01075,  0.29570,  0.00000,  0.00,  0.00,  0.00,  0.00000,  0.000,  0.00000,  0.00000,  0.00000,  0.00000,  1
1004,  1057,  '99',  0.60480,  3.63263,  0.00000,  0.00,  0.00,  0.00,  0.00000,  0.000,  0.00000,  0.00000,  0.00000,  0.00000,  1
1004,  2057,  '99',  0.21791,  0.86700,  0.00000,  0.00,  0.00,  0.00,  0.00000,  0.000,  0.00000,  0.00000,  0.00000,  0.00000,  1
1004,  3034,  '99',  0.29376,  2.29152,  0.00000,  0.00,  0.00,  0.00,  0.00000,  0.000,  0.00000,  0.00000,  0.00000,  0.00000,  1
1004,  3039,  '99',  0.02744,  0.30931,  0.00000,  0.00,  0.00,  0.00,  0.00000,  0.000,  0.00000,  0.00000,  0.00000,  0.00000,  1
1004,  3045,  '99',  0.71799,  4.58233,  0.00000,  0.00,  0.00,  0.00,  0.00000,  0.000,  0.00000,  0.00000,  0.00000,  0.00000,  1
1004,  3048,  '99',  0.03849,  0.28181,  0.00000,  0.00,  0.00,  0.00,  0.00000,  0.000,  0.00000,  0.00000,  0.00000,  0.00000,  1
1004,  3055,  '99',  0.69770,  4.12723,  0.00000,  0.00,  0.00,  0.00,  0.00000,  0.000,  0.00000,  0.00000,  0.00000,  0.00000,  1
1004,  3081,  '99',  0.03413,  0.39664,  0.00000,  0.00,  0.00,  0.00,  0.00000,  0.000,  0.00000,  0.00000,  0.00000,  0.00000,  1
1004,  3098,  '99',  0.01316,  0.37835,  0.00000,  0.00,  0.00,  0.00,  0.00000,  0.000,  0.00000,  0.00000,  0.00000,  0.00000,  1
1004,  3118,  '99',  0.15196,  1.68031,  0.00000,  0.00,  0.00,  0.00,  0.00000,  0.000,  0.00000,  0.00000,  0.00000,  0.00000,  1
1004,  3127,  '99',  0.57668,  2.52260,  0.00000,  0.00,  0.00,  0.00,  0.00000,  0.000,  0.00000,  0.00000,  0.00000,  0.00000,  1
1004,  3129,  '99',  0.77884,  2.69133,  0.00000,  0.00,  0.00,  0.00,  0.00000,  0.000,  0.00000,  0.00000,  0.00000,  0.00000,  1
1004,  5238,  '99',  0.46468,  1.84365,  0.00000,  0.00,  0.00,  0.00,  0.00000,  0.000,  0.00000,  0.00000,  0.00000,  0.00000,  1
1021,  1026,  '99',  0.02151,  0.78407,  0.00000,  0.00,  0.00,  0.00,  0.00000,  0.000,  0.00000,  0.00000,  0.00000,  0.00000,  1
1021,  1042,  '99',  0.38986,  3.01455,  0.00000,  0.00,  0.00,  0.00,  0.00000,  0.000,  0.00000,  0.00000,  0.00000,  0.00000,  1
1021,  1066,  '99',  0.58752,  4.05605,  0.00000,  0.00,  0.00,  0.00,  0.00000,  0.000,  0.00000,  0.00000,  0.00000,  0.00000,  1
1021,  1084,  '99',  0.01327,  0.18923,  0.00000,  0.00,  0.00,  0.00,  0.00000,  0.000,  0.00000,  0.00000,  0.00000,  0.00000,  1
1021,  3048,  '99',  0.32907,  2.91074,  0.00000,  0.00,  0.00,  0.00,  0.00000,  0.000,  0.00000,  0.00000,  0.00000,  0.00000,  1
1021,  3062,  '99',  -0.06554,  4.31192,  0.00000,  0.00,  0.00,  0.00,  0.00000,  0.000,  0.00000,  0.00000,  0.00000,  0.00000,  1
1023,  3048,  '99',  0.53193,  4.15515,  0.00000,  0.00,  0.00,  0.00,  0.00000,  0.000,  0.00000,  0.00000,  0.00000,  0.00000,  1
1023,  3098,  '99',  -0.03871,  2.01498,  0.00000,  0.00,  0.00,  0.00,  0.00000,  0.000,  0.00000,  0.00000,  0.00000,  0.00000,  1
1026,  1042,  '99',  0.25461,  2.20532,  0.00000,  0.00,  0.00,  0.00,  0.00000,  0.000,  0.00000,  0.00000,  0.00000,  0.00000,  1
1026,  1057,  '99',  0.15852,  4.23897,  0.00000,  0.00,  0.00,  0.00,  0.00000,  0.000,  0.00000,  0.00000,  0.00000,  0.00000,  1
1026,  1066,  '99',  0.38983,  2.97828,  0.00000,  0.00,  0.00,  0.00,  0.00000,  0.000,  0.00000,  0.00000,  0.00000,  0.00000,  1
1026,  1084,  '99',  0.07425,  0.46472,  0.00000,  0.00,  0.00,  0.00,  0.00000,  0.000,  0.00000,  0.00000,  0.00000,  0.00000,  1
1026,  3048,  '99',  0.81937,  4.89111,  0.00000,  0.00,  0.00,  0.00,  0.00000,  0.000,  0.00000,  0.00000,  0.00000,  0.00000,  1
1033,  1039,  '99',  0.07075,  0.79487,  0.00000,  0.00,  0.00,  0.00,  0.00000,  0.000,  0.00000,  0.00000,  0.00000,  0.00000,  1
1033,  1042,  '99',  -0.39981,  4.67389,  0.00000,  0.00,  0.00,  0.00,  0.00000,  0.000,  0.00000,  0.00000,  0.00000,  0.00000,  1
1033,  1070,  '99',  0.05214,  0.56413,  0.00000,  0.00,  0.00,  0.00,  0.00000,  0.000,  0.00000,  0.00000,  0.00000,  0.00000,  1
1033,  1081,  '99',  0.00300,  0.03091,  0.00000,  0.00,  0.00,  0.00,  0.00000,  0.000,  0.00000,  0.00000,  0.00000,  0.00000,  1
1033,  1082,  '99',  0.08180,  0.28415,  0.00000,  0.00,  0.00,  0.00,  0.00000,  0.000,  0.00000,  0.00000,  0.00000,  0.00000,  1
1033,  1084,  '99',  1.02421,  4.81132,  0.00000,  0.00,  0.00,  0.00,  0.00000,  0.000,  0.00000,  0.00000,  0.00000,  0.00000,  1
1033,  3020,  '99',  0.03669,  0.82292,  0.00000,  0.00,  0.00,  0.00,  0.00000,  0.000,  0.00000,  0.00000,  0.00000,  0.00000,  1
1033,  4026,  '99',  0.22890,  4.49315,  0.00000,  0.00,  0.00,  0.00,  0.00000,  0.000,  0.00000,  0.00000,  0.00000,  0.00000,  1
1033,  4115,  '99',  0.14443,  3.22016,  0.00000,  0.00,  0.00,  0.00,  0.00000,  0.000,  0.00000,  0.00000,  0.00000,  0.00000,  1
1033,  4116,  '99',  0.18517,  3.38670,  0.00000,  0.00,  0.00,  0.00,  0.00000,  0.000,  0.00000,  0.00000,  0.00000,  0.00000,  1
1039,  1048,  '99',  0.07492,  3.09640,  0.00000,  0.00,  0.00,  0.00,  0.00000,  0.000,  0.00000,  0.00000,  0.00000,  0.00000,  1
1039,  1053,  '99',  -0.00249,  4.14462,  0.00000,  0.00,  0.00,  0.00,  0.00000,  0.000,  0.00000,  0.00000,  0.00000,  0.00000,  1
1039,  1070,  '99',  1.17811,  4.15908,  0.00000,  0.00,  0.00,  0.00,  0.00000,  0.000,  0.00000,  0.00000,  0.00000,  0.00000,  1
1039,  1082,  '99',  0.01336,  0.16919,  0.00000,  0.00,  0.00,  0.00,  0.00000,  0.000,  0.00000,  0.00000,  0.00000,  0.00000,  1
1042,  1057,  '99',  -0.01205,  1.34427,  0.00000,  0.00,  0.00,  0.00,  0.00000,  0.000,  0.00000,  0.00000,  0.00000,  0.00000,  1
1042,  1066,  '99',  -0.01348,  0.47806,  0.00000,  0.00,  0.00,  0.00,  0.00000,  0.000,  0.00000,  0.00000,  0.00000,  0.00000,  1
1042,  1084,  '99',  0.43570,  1.62284,  0.00000,  0.00,  0.00,  0.00,  0.00000,  0.000,  0.00000,  0.00000,  0.00000,  0.00000,  1
1042,  3048,  '99',  0.66683,  4.19891,  0.00000,  0.00,  0.00,  0.00,  0.00000,  0.000,  0.00000,  0.00000,  0.00000,  0.00000,  1
1048,  1049,  '99',  0.00173,  0.34075,  0.00000,  0.00,  0.00,  0.00,  0.00000,  0.000,  0.00000,  0.00000,  0.00000,  0.00000,  1
1048,  1053,  '99',  0.00198,  0.25473,  0.00000,  0.00,  0.00,  0.00,  0.00000,  0.000,  0.00000,  0.00000,  0.00000,  0.00000,  1
1048,  1076,  '99',  0.43441,  2.86623,  0.00000,  0.00,  0.00,  0.00,  0.00000,  0.000,  0.00000,  0.00000,  0.00000,  0.00000,  1
1048,  1081,  '99',  0.57214,  3.84405,  0.00000,  0.00,  0.00,  0.00,  0.00000,  0.000,  0.00000,  0.00000,  0.00000,  0.00000,  1
1048,  1082,  '99',  0.41124,  1.73768,  0.00000,  0.00,  0.00,  0.00,  0.00000,  0.000,  0.00000,  0.00000,  0.00000,  0.00000,  1
1048,  3048,  '99',  0.42293,  3.01957,  0.00000,  0.00,  0.00,  0.00,  0.00000,  0.000,  0.00000,  0.00000,  0.00000,  0.00000,  1
1049,  1053,  '99',  -0.00899,  0.45588,  0.00000,  0.00,  0.00,  0.00,  0.00000,  0.000,  0.00000,  0.00000,  0.00000,  0.00000,  1
1049,  1082,  '99',  0.65038,  3.12947,  0.00000,  0.00,  0.00,  0.00,  0.00000,  0.000,  0.00000,  0.00000,  0.00000,  0.00000,  1
1053,  1076,  '99',  0.48604,  3.84864,  0.00000,  0.00,  0.00,  0.00,  0.00000,  0.000,  0.00000,  0.00000,  0.00000,  0.00000,  1
1053,  1081,  '99',  0.00299,  0.02983,  0.00000,  0.00,  0.00,  0.00,  0.00000,  0.000,  0.00000,  0.00000,  0.00000,  0.00000,  1
1053,  1082,  '99',  0.49249,  2.33818,  0.00000,  0.00,  0.00,  0.00,  0.00000,  0.000,  0.00000,  0.00000,  0.00000,  0.00000,  1
1053,  3048,  '99',  0.46559,  4.05339,  0.00000,  0.00,  0.00,  0.00,  0.00000,  0.000,  0.00000,  0.00000,  0.00000,  0.00000,  1
1057,  1066,  '99',  -0.01853,  1.25939,  0.00000,  0.00,  0.00,  0.00,  0.00000,  0.000,  0.00000,  0.00000,  0.00000,  0.00000,  1
1057,  1076,  '99',  0.18475,  3.06869,  0.00000,  0.00,  0.00,  0.00,  0.00000,  0.000,  0.00000,  0.00000,  0.00000,  0.00000,  1
1057,  1081,  '99',  0.23477,  3.87780,  0.00000,  0.00,  0.00,  0.00,  0.00000,  0.000,  0.00000,  0.00000,  0.00000,  0.00000,  1
1057,  1084,  '99',  0.43639,  2.20246,  0.00000,  0.00,  0.00,  0.00,  0.00000,  0.000,  0.00000,  0.00000,  0.00000,  0.00000,  1
1057,  3048,  '99',  0.14064,  2.46279,  0.00000,  0.00,  0.00,  0.00,  0.00000,  0.000,  0.00000,  0.00000,  0.00000,  0.00000,  1
1066,  1084,  '99',  0.59661,  2.10127,  0.00000,  0.00,  0.00,  0.00,  0.00000,  0.000,  0.00000,  0.00000,  0.00000,  0.00000,  1
1066,  3048,  '99',  0.73656,  4.66895,  0.00000,  0.00,  0.00,  0.00,  0.00000,  0.000,  0.00000,  0.00000,  0.00000,  0.00000,  1
1070,  1082,  '99',  0.02818,  0.20011,  0.00000,  0.00,  0.00,  0.00,  0.00000,  0.000,  0.00000,  0.00000,  0.00000,  0.00000,  1
1070,  3020,  '99',  -0.05939,  3.43755,  0.00000,  0.00,  0.00,  0.00,  0.00000,  0.000,  0.00000,  0.00000,  0.00000,  0.00000,  1
1072,  1073,  '99',  0.13251,  1.27089,  0.00000,  0.00,  0.00,  0.00,  0.00000,  0.000,  0.00000,  0.00000,  0.00000,  0.00000,  1
1072,  1074,  '99',  0.06137,  1.21769,  0.00000,  0.00,  0.00,  0.00,  0.00000,  0.000,  0.00000,  0.00000,  0.00000,  0.00000,  1
1072,  1075,  '99',  0.04059,  0.97464,  0.00000,  0.00,  0.00,  0.00,  0.00000,  0.000,  0.00000,  0.00000,  0.00000,  0.00000,  1
1072,  1076,  '99',  0.01583,  0.48279,  0.00000,  0.00,  0.00,  0.00,  0.00000,  0.000,  0.00000,  0.00000,  0.00000,  0.00000,  1
1072,  1077,  '99',  0.06766,  1.17795,  0.00000,  0.00,  0.00,  0.00,  0.00000,  0.000,  0.00000,  0.00000,  0.00000,  0.00000,  1
1072,  1081,  '99',  0.01922,  0.64976,  0.00000,  0.00,  0.00,  0.00,  0.00000,  0.000,  0.00000,  0.00000,  0.00000,  0.00000,  1
1072,  1084,  '99',  0.32634,  1.67864,  0.00000,  0.00,  0.00,  0.00,  0.00000,  0.000,  0.00000,  0.00000,  0.00000,  0.00000,  1
1072,  3048,  '99',  0.01008,  0.51748,  0.00000,  0.00,  0.00,  0.00,  0.00000,  0.000,  0.00000,  0.00000,  0.00000,  0.00000,  1
...